Simulation_Workspace/results/phase2_loadflow/phase2_bus_results.csv
Case_ID,Bus_Name,Vnom_kV,V_pu,V_kV,Angle_deg,P_inj_MW,Q_inj_MVAr
LF360_GAT_OUT,BGRID230,230.00,1.000000,230.000000,0.0000,-345.270149,25.819339
LF360_GAT_OUT,B22,22.00,1.000000,22.000000,-22.8349,360.000000,28.170239
LF360_GAT_OUT,B6_6,6.60,1.000909,6.605999,3.7240,-14.000000,-8.676420
LF360_GAT_OUT,B6_6_WI1,6.60,1.000909,6.605999,3.7240,NaN,NaN
LF360_GAT_OUT,B6_6_WI2,6.60,1.000909,6.605999,3.7240,NaN,NaN
LF360_GAT_OUT,B230_1,230.00,0.998854,229.736460,0.9944,0.000000,0.000000
LF360_GAT_OUT,B230_2,230.00,0.998854,229.736460,0.9944,NaN,NaN
LF360_GAT_OUT,GAT_HV,230.00,0.957238,220.164650,3.7219,-0.000000,0.000000
LF360_GAT_IN,BGRID230,230.00,1.000000,230.000000,0.0000,-345.257563,29.599351
LF360_GAT_IN,B22,22.00,1.000000,22.000000,-22.9222,360.000000,23.987427
LF360_GAT_IN,B6_6,6.60,1.020622,6.736104,2.4415,-14.000000,-8.676421
LF360_GAT_IN,B6_6_WI1,6.60,1.020622,6.736104,2.4415,NaN,NaN
LF360_GAT_IN,B6_6_WI2,6.60,1.020622,6.736104,2.4415,NaN,NaN
LF360_GAT_IN,B230_1,230.00,0.998664,229.692816,0.9945,0.000000,0.000001
LF360_GAT_IN,B230_2,230.00,0.998664,229.692816,0.9945,NaN,NaN
LF360_GAT_IN,GAT_HV,230.00,0.998666,229.693244,0.9946,-0.000000,-0.000000
